Distrib/IEEETestCases/ShortCircuitCases/123Bus/ieee123_VLN_elem.Txt

NODE-GROUND VOLTAGES BY CIRCUIT ELEMENT

Power Delivery Elements

Bus      (node ref)  Phase    Magnitude, kV (pu)    Angle

ELEMENT = "Transformer.reg1a"
150       (  1)    1           2.4018 (       1) /_    0.0
150       (  2)    2           2.4018 (       1) /_ -120.0
150       (  3)    3           2.4018 (       1) /_  120.0
150       (  0)    4                0 (       0) /_    0.0
------------
150r      (  4)    1           2.4918 (   1.037) /_    0.0
150r      (  5)    2           2.4918 (   1.037) /_ -120.0
150r      (  6)    3           2.4918 (   1.037) /_  120.0
150r      (  0)    4                0 (       0) /_    0.0

ELEMENT = "Line.l115"
149       (  7)    1           2.4918 (   1.037) /_    0.0
149       (  8)    2           2.4918 (   1.037) /_ -120.0
149       (  9)    3           2.4918 (   1.037) /_  120.0
------------
1         ( 10)    1           2.4619 (   1.025) /_   -0.7
1         ( 11)    2           2.4848 (   1.035) /_ -120.3
1         ( 12)    3           2.4705 (   1.029) /_  119.6

ELEMENT = "Line.l1"
1         ( 11)    1           2.4848 (   1.035) /_ -120.3
------------
2         ( 13)    1           2.4842 (   1.034) /_ -120.3

ELEMENT = "Line.l2"
1         ( 12)    1           2.4705 (   1.029) /_  119.6
------------
3         ( 14)    1           2.4664 (   1.027) /_  119.6

ELEMENT = "Line.l3"
1         ( 10)    1           2.4619 (   1.025) /_   -0.7
1         ( 11)    2           2.4848 (   1.035) /_ -120.3
1         ( 12)    3           2.4705 (   1.029) /_  119.6
------------
7         ( 15)    1           2.4396 (   1.016) /_   -1.1
7         ( 16)    2           2.4798 (   1.032) /_ -120.6
7         ( 17)    3           2.4568 (   1.023) /_  119.4

ELEMENT = "Line.l4"
3         ( 14)    1           2.4664 (   1.027) /_  119.6
------------
4         ( 18)    1           2.4651 (   1.026) /_  119.6

ELEMENT = "Line.l5"
3         ( 14)    1           2.4664 (   1.027) /_  119.6
------------
5         ( 19)    1           2.4632 (   1.026) /_  119.6

ELEMENT = "Line.l6"
5         ( 19)    1           2.4632 (   1.026) /_  119.6
------------
6         ( 20)    1           2.4616 (   1.025) /_  119.6

ELEMENT = "Line.l7"
7         ( 15)    1           2.4396 (   1.016) /_   -1.1
7         ( 16)    2           2.4798 (   1.032) /_ -120.6
7         ( 17)    3           2.4568 (   1.023) /_  119.4
------------
8         ( 21)    1           2.4251 (    1.01) /_   -1.5
8         ( 22)    2           2.4763 (   1.031) /_ -120.7
8         ( 23)    3           2.4478 (   1.019) /_  119.2

ELEMENT = "Line.l8"
8         ( 22)    1           2.4763 (   1.031) /_ -120.7
------------
12        ( 24)    1           2.4756 (   1.031) /_ -120.7

ELEMENT = "Line.l9"
8         ( 21)    1           2.4251 (    1.01) /_   -1.5
------------
9         ( 25)    1           2.4215 (   1.008) /_   -1.5

ELEMENT = "Line.l10"
8         ( 21)    1           2.4251 (    1.01) /_   -1.5
8         ( 22)    2           2.4763 (   1.031) /_ -120.7
8         ( 23)    3           2.4478 (   1.019) /_  119.2
------------
13        ( 26)    1            2.406 (   1.002) /_   -1.9
13        ( 27)    2           2.4702 (   1.029) /_ -121.0
13        ( 28)    3           2.4342 (   1.013) /_  118.9

ELEMENT = "Line.l11"
9r        ( 29)    1           2.4215 (   1.008) /_   -1.5
------------
14        ( 30)    1           2.4174 (   1.007) /_   -1.5

ELEMENT = "Line.l12"
13        ( 28)    1           2.4342 (   1.013) /_  118.9
------------
34        ( 31)    1           2.4318 (   1.013) /_  118.9

ELEMENT = "Line.l13"
13        ( 26)    1            2.406 (   1.002) /_   -1.9
13        ( 27)    2           2.4702 (   1.029) /_ -121.0
13        ( 28)    3           2.4342 (   1.013) /_  118.9
------------
18        ( 32)    1           2.3836 (  0.9924) /_   -2.3
18        ( 33)    2            2.461 (   1.025) /_ -121.2
18        ( 34)    3           2.4164 (   1.006) /_  118.9

ELEMENT = "Line.l14"
14        ( 30)    1           2.4174 (   1.007) /_   -1.5
------------
11        ( 35)    1           2.4158 (   1.006) /_   -1.5

ELEMENT = "Line.l15"
14        ( 30)    1           2.4174 (   1.007) /_   -1.5
------------
10        ( 36)    1           2.4166 (   1.006) /_   -1.5

ELEMENT = "Line.l16"
15        ( 37)    1           2.4309 (   1.012) /_  118.9
------------
16        ( 38)    1           2.4285 (   1.011) /_  118.9

ELEMENT = "Line.l17"
15        ( 37)    1           2.4309 (   1.012) /_  118.9
------------
17        ( 39)    1           2.4297 (   1.012) /_  118.9

ELEMENT = "Line.l18"
18        ( 32)    1           2.3836 (  0.9924) /_   -2.3
------------
19        ( 40)    1           2.3804 (  0.9911) /_   -2.3

ELEMENT = "Line.l19"
18        ( 32)    1           2.3836 (  0.9924) /_   -2.3
18        ( 33)    2            2.461 (   1.025) /_ -121.2
18        ( 34)    3           2.4164 (   1.006) /_  118.9
------------
21        ( 41)    1           2.3822 (  0.9919) /_   -2.4
21        ( 42)    2           2.4612 (   1.025) /_ -121.2
21        ( 43)    3           2.4135 (   1.005) /_  118.8

ELEMENT = "Line.l20"
19        ( 40)    1           2.3804 (  0.9911) /_   -2.3
------------
20        ( 44)    1           2.3783 (  0.9902) /_   -2.4

ELEMENT = "Line.l21"
21        ( 42)    1           2.4612 (   1.025) /_ -121.2
------------
22        ( 45)    1           2.4578 (   1.023) /_ -121.2

ELEMENT = "Line.l22"
21        ( 41)    1           2.3822 (  0.9919) /_   -2.4
21        ( 42)    2           2.4612 (   1.025) /_ -121.2
21        ( 43)    3           2.4135 (   1.005) /_  118.8
------------
23        ( 46)    1           2.3812 (  0.9914) /_   -2.4
23        ( 47)    2           2.4622 (   1.025) /_ -121.2
23        ( 48)    3           2.4108 (   1.004) /_  118.8

ELEMENT = "Line.l23"
23        ( 48)    1           2.4108 (   1.004) /_  118.8
------------
24        ( 49)    1           2.4073 (   1.002) /_  118.8

ELEMENT = "Line.l24"
23        ( 46)    1           2.3812 (  0.9914) /_   -2.4
23        ( 47)    2           2.4622 (   1.025) /_ -121.2
23        ( 48)    3           2.4108 (   1.004) /_  118.8
------------
25        ( 50)    1           2.3795 (  0.9907) /_   -2.5
25        ( 51)    2           2.4634 (   1.026) /_ -121.2
25        ( 52)    3           2.4087 (   1.003) /_  118.8

ELEMENT = "Line.l25"
25r       ( 53)    1           2.3944 (  0.9969) /_   -2.5
25r       ( 54)    2           2.4087 (   1.003) /_  118.8
------------
26        ( 55)    1           2.3938 (  0.9967) /_   -2.5
26        ( 56)    2           2.4075 (   1.002) /_  118.8

ELEMENT = "Line.l26"
25        ( 50)    1           2.3795 (  0.9907) /_   -2.5
25        ( 51)    2           2.4634 (   1.026) /_ -121.2
25        ( 52)    3           2.4087 (   1.003) /_  118.8
------------
28        ( 57)    1           2.3786 (  0.9904) /_   -2.5
28        ( 58)    2            2.464 (   1.026) /_ -121.2
28        ( 59)    3           2.4079 (   1.003) /_  118.8

ELEMENT = "Line.l27"
26        ( 55)    1           2.3938 (  0.9967) /_   -2.5
26        ( 56)    2           2.4075 (   1.002) /_  118.8
------------
27        ( 60)    1           2.3929 (  0.9963) /_   -2.5
27        ( 61)    2           2.4074 (   1.002) /_  118.8

ELEMENT = "Line.l28"
26        ( 56)    1           2.4075 (   1.002) /_  118.8
------------
31        ( 62)    1            2.406 (   1.002) /_  118.8

ELEMENT = "Line.l29"
27        ( 60)    1           2.3929 (  0.9963) /_   -2.5
------------
33        ( 63)    1           2.3897 (   0.995) /_   -2.6

ELEMENT = "Line.l30"
28        ( 57)    1           2.3786 (  0.9904) /_   -2.5
28        ( 58)    2            2.464 (   1.026) /_ -121.2
28        ( 59)    3           2.4079 (   1.003) /_  118.8
------------
29        ( 64)    1           2.3782 (  0.9902) /_   -2.5
29        ( 65)    2           2.4644 (   1.026) /_ -121.2
29        ( 66)    3           2.4068 (   1.002) /_  118.8

ELEMENT = "Line.l31"
29        ( 64)    1           2.3782 (  0.9902) /_   -2.5
29        ( 65)    2           2.4644 (   1.026) /_ -121.2
29        ( 66)    3           2.4068 (   1.002) /_  118.8
------------
30        ( 67)    1           2.3789 (  0.9905) /_   -2.5
30        ( 68)    2           2.4643 (   1.026) /_ -121.2
30        ( 69)    3           2.4057 (   1.002) /_  118.8

ELEMENT = "Line.l32"
30        ( 67)    1           2.3789 (  0.9905) /_   -2.5
30        ( 68)    2           2.4643 (   1.026) /_ -121.2
30        ( 69)    3           2.4057 (   1.002) /_  118.8
------------
250       ( 70)    1           2.3789 (  0.9905) /_   -2.5
250       ( 71)    2           2.4643 (   1.026) /_ -121.2
250       ( 72)    3           2.4057 (   1.002) /_  118.8

ELEMENT = "Line.l33"
31        ( 62)    1            2.406 (   1.002) /_  118.8
------------
32        ( 73)    1           2.4051 (   1.001) /_  118.8

ELEMENT = "Line.l34"
34        ( 31)    1           2.4318 (   1.013) /_  118.9
------------
15        ( 37)    1           2.4309 (   1.012) /_  118.9

ELEMENT = "Line.l35"
35        ( 74)    1           2.3769 (  0.9896) /_   -2.4
35        ( 75)    2           2.4552 (   1.022) /_ -121.3
------------
36        ( 76)    1           2.3747 (  0.9887) /_   -2.4
36        ( 77)    2           2.4541 (   1.022) /_ -121.3

ELEMENT = "Line.l36"
35        ( 74)    1           2.3769 (  0.9896) /_   -2.4
35        ( 75)    2           2.4552 (   1.022) /_ -121.3
35        ( 78)    3           2.4134 (   1.005) /_  118.8
------------
40        ( 79)    1           2.3733 (  0.9882) /_   -2.4
40        ( 80)    2           2.4524 (   1.021) /_ -121.3
40        ( 81)    3           2.4109 (   1.004) /_  118.8

ELEMENT = "Line.l37"
36        ( 76)    1           2.3747 (  0.9887) /_   -2.4
------------
37        ( 82)    1           2.3728 (  0.9879) /_   -2.4

ELEMENT = "Line.l38"
36        ( 77)    1           2.4541 (   1.022) /_ -121.3
------------
38        ( 83)    1           2.4525 (   1.021) /_ -121.3

ELEMENT = "Line.l39"
38        ( 83)    1           2.4525 (   1.021) /_ -121.3
------------
39        ( 84)    1           2.4515 (   1.021) /_ -121.4

ELEMENT = "Line.l40"
40        ( 81)    1           2.4109 (   1.004) /_  118.8
------------
41        ( 85)    1           2.4098 (   1.003) /_  118.8

ELEMENT = "Line.l41"
40        ( 79)    1           2.3733 (  0.9882) /_   -2.4
40        ( 80)    2           2.4524 (   1.021) /_ -121.3
40        ( 81)    3           2.4109 (   1.004) /_  118.8
------------
42        ( 86)    1           2.3696 (  0.9866) /_   -2.5
42        ( 87)    2           2.4496 (    1.02) /_ -121.4
42        ( 88)    3           2.4087 (   1.003) /_  118.7

ELEMENT = "Line.l42"
42        ( 87)    1           2.4496 (    1.02) /_ -121.4
------------
43        ( 89)    1           2.4463 (   1.019) /_ -121.4

ELEMENT = "Line.l43"
42        ( 86)    1           2.3696 (  0.9866) /_   -2.5
42        ( 87)    2           2.4496 (    1.02) /_ -121.4
42        ( 88)    3           2.4087 (   1.003) /_  118.7
------------
44        ( 90)    1            2.367 (  0.9855) /_   -2.5
44        ( 91)    2           2.4478 (   1.019) /_ -121.4
44        ( 92)    3           2.4067 (   1.002) /_  118.7

ELEMENT = "Line.l44"
44        ( 90)    1            2.367 (  0.9855) /_   -2.5
------------
45        ( 93)    1           2.3657 (   0.985) /_   -2.5

ELEMENT = "Line.l45"
44        ( 90)    1            2.367 (  0.9855) /_   -2.5
44        ( 91)    2           2.4478 (   1.019) /_ -121.4
44        ( 92)    3           2.4067 (   1.002) /_  118.7
------------
47        ( 94)    1           2.3646 (  0.9845) /_   -2.5
47        ( 95)    2           2.4451 (   1.018) /_ -121.4
47        ( 96)    3           2.4042 (   1.001) /_  118.6

ELEMENT = "Line.l46"
45        ( 93)    1           2.3657 (   0.985) /_   -2.5
------------
46        ( 97)    1           2.3647 (  0.9846) /_   -2.5

ELEMENT = "Line.l47"
47        ( 94)    1           2.3646 (  0.9845) /_   -2.5
47        ( 95)    2           2.4451 (   1.018) /_ -121.4
47        ( 96)    3           2.4042 (   1.001) /_  118.6
------------
48        ( 98)    1           2.3639 (  0.9842) /_   -2.6
48        ( 99)    2           2.4445 (   1.018) /_ -121.4
48        (100)    3           2.4036 (   1.001) /_  118.6

ELEMENT = "Line.l48"
47        ( 94)    1           2.3646 (  0.9845) /_   -2.5
47        ( 95)    2           2.4451 (   1.018) /_ -121.4
47        ( 96)    3           2.4042 (   1.001) /_  118.6
------------
49        (101)    1           2.3639 (  0.9842) /_   -2.6
49        (102)    2           2.4439 (   1.018) /_ -121.4
49        (103)    3           2.4033 (   1.001) /_  118.6

ELEMENT = "Line.l49"
49        (101)    1           2.3639 (  0.9842) /_   -2.6
49        (102)    2           2.4439 (   1.018) /_ -121.4
49        (103)    3           2.4033 (   1.001) /_  118.6
------------
50        (104)    1           2.3639 (  0.9842) /_   -2.6
50        (105)    2            2.444 (   1.018) /_ -121.4
50        (106)    3           2.4024 (       1) /_  118.6

ELEMENT = "Line.l50"
50        (104)    1           2.3639 (  0.9842) /_   -2.6
50        (105)    2            2.444 (   1.018) /_ -121.4
50        (106)    3           2.4024 (       1) /_  118.6
------------
51        (107)    1           2.3635 (  0.9841) /_   -2.6
51        (108)    2           2.4442 (   1.018) /_ -121.4
51        (109)    3           2.4024 (       1) /_  118.6

ELEMENT = "Line.l51"
51        (107)    1           2.3635 (  0.9841) /_   -2.6
51        (108)    2           2.4442 (   1.018) /_ -121.4
51        (109)    3           2.4024 (       1) /_  118.6
------------
151       (110)    1           2.3635 (  0.9841) /_   -2.6
151       (111)    2           2.4442 (   1.018) /_ -121.4
151       (112)    3           2.4024 (       1) /_  118.6

ELEMENT = "Line.l52"
52        (113)    1           2.3916 (  0.9958) /_   -2.3
52        (114)    2           2.4665 (   1.027) /_ -121.2
52        (115)    3           2.4266 (    1.01) /_  118.7
------------
53        (116)    1            2.385 (   0.993) /_   -2.4
53        (117)    2           2.4643 (   1.026) /_ -121.3
53        (118)    3           2.4229 (   1.009) /_  118.6

ELEMENT = "Line.l53"
53        (116)    1            2.385 (   0.993) /_   -2.4
53        (117)    2           2.4643 (   1.026) /_ -121.3
53        (118)    3           2.4229 (   1.009) /_  118.6
------------
54        (119)    1           2.3814 (  0.9915) /_   -2.6
54        (120)    2           2.4627 (   1.025) /_ -121.4
54        (121)    3           2.4206 (   1.008) /_  118.5

ELEMENT = "Line.l54"
54        (119)    1           2.3814 (  0.9915) /_   -2.6
54        (120)    2           2.4627 (   1.025) /_ -121.4
54        (121)    3           2.4206 (   1.008) /_  118.5
------------
55        (122)    1           2.3809 (  0.9913) /_   -2.6
55        (123)    2           2.4625 (   1.025) /_ -121.4
55        (124)    3           2.4208 (   1.008) /_  118.5

ELEMENT = "Line.l55"
54        (119)    1           2.3814 (  0.9915) /_   -2.6
54        (120)    2           2.4627 (   1.025) /_ -121.4
54        (121)    3           2.4206 (   1.008) /_  118.5
------------
57        (125)    1           2.3737 (  0.9883) /_   -2.8
57        (126)    2           2.4562 (   1.023) /_ -121.6
57        (127)    3           2.4139 (   1.005) /_  118.3

ELEMENT = "Line.l56"
55        (122)    1           2.3809 (  0.9913) /_   -2.6
55        (123)    2           2.4625 (   1.025) /_ -121.4
55        (124)    3           2.4208 (   1.008) /_  118.5
------------
56        (128)    1           2.3808 (  0.9913) /_   -2.6
56        (129)    2           2.4621 (   1.025) /_ -121.4
56        (130)    3            2.421 (   1.008) /_  118.5

ELEMENT = "Line.l57"
57        (126)    1           2.4562 (   1.023) /_ -121.6
------------
58        (131)    1           2.4547 (   1.022) /_ -121.6

ELEMENT = "Line.l58"
57        (125)    1           2.3737 (  0.9883) /_   -2.8
57        (126)    2           2.4562 (   1.023) /_ -121.6
57        (127)    3           2.4139 (   1.005) /_  118.3
------------
60        (132)    1           2.3578 (  0.9817) /_   -3.5
60        (133)    2            2.445 (   1.018) /_ -122.0
60        (134)    3           2.3983 (  0.9985) /_  117.8

ELEMENT = "Line.l59"
58        (131)    1           2.4547 (   1.022) /_ -121.6
------------
59        (135)    1           2.4539 (   1.022) /_ -121.6

ELEMENT = "Line.l60"
60        (132)    1           2.3578 (  0.9817) /_   -3.5
60        (133)    2            2.445 (   1.018) /_ -122.0
60        (134)    3           2.3983 (  0.9985) /_  117.8
------------
61        (136)    1           2.3578 (  0.9817) /_   -3.5
61        (137)    2            2.445 (   1.018) /_ -122.0
61        (138)    3           2.3983 (  0.9985) /_  117.8

ELEMENT = "Line.l61"
60        (132)    1           2.3578 (  0.9817) /_   -3.5
60        (133)    2            2.445 (   1.018) /_ -122.0
60        (134)    3           2.3983 (  0.9985) /_  117.8
------------
62        (139)    1            2.356 (  0.9809) /_   -3.5
62        (140)    2           2.4423 (   1.017) /_ -122.0
62        (141)    3           2.3933 (  0.9965) /_  117.8

ELEMENT = "Line.l62"
62        (139)    1            2.356 (  0.9809) /_   -3.5
62        (140)    2           2.4423 (   1.017) /_ -122.0
62        (141)    3           2.3933 (  0.9965) /_  117.8
------------
63        (142)    1           2.3545 (  0.9803) /_   -3.5
63        (143)    2           2.4402 (   1.016) /_ -122.0
63        (144)    3           2.3909 (  0.9955) /_  117.8

ELEMENT = "Line.l63"
63        (142)    1           2.3545 (  0.9803) /_   -3.5
63        (143)    2           2.4402 (   1.016) /_ -122.0
63        (144)    3           2.3909 (  0.9955) /_  117.8
------------
64        (145)    1           2.3538 (    0.98) /_   -3.5
64        (146)    2           2.4357 (   1.014) /_ -121.9
64        (147)    3           2.3856 (  0.9933) /_  117.8

ELEMENT = "Line.l64"
64        (145)    1           2.3538 (    0.98) /_   -3.5
64        (146)    2           2.4357 (   1.014) /_ -121.9
64        (147)    3           2.3856 (  0.9933) /_  117.8
------------
65        (148)    1           2.3521 (  0.9793) /_   -3.5
65        (149)    2            2.435 (   1.014) /_ -121.9
65        (150)    3           2.3783 (  0.9902) /_  117.8

ELEMENT = "Line.l65"
65        (148)    1           2.3521 (  0.9793) /_   -3.5
65        (149)    2            2.435 (   1.014) /_ -121.9
65        (150)    3           2.3783 (  0.9902) /_  117.8
------------
66        (151)    1           2.3527 (  0.9796) /_   -3.5
66        (152)    2           2.4356 (   1.014) /_ -121.9
66        (153)    3           2.3746 (  0.9887) /_  117.8

ELEMENT = "Line.l66"
67        (154)    1           2.3967 (  0.9979) /_   -3.8
------------
68        (155)    1           2.3928 (  0.9963) /_   -3.8

ELEMENT = "Line.l67"
67        (154)    1           2.3967 (  0.9979) /_   -3.8
67        (156)    2           2.4734 (    1.03) /_ -122.2
67        (157)    3           2.4383 (   1.015) /_  117.7
------------
72        (158)    1           2.3975 (  0.9982) /_   -3.9
72        (159)    2           2.4714 (   1.029) /_ -122.3
72        (160)    3           2.4375 (   1.015) /_  117.6

ELEMENT = "Line.l68"
67        (154)    1           2.3967 (  0.9979) /_   -3.8
67        (156)    2           2.4734 (    1.03) /_ -122.2
67        (157)    3           2.4383 (   1.015) /_  117.7
------------
97        (161)    1           2.3943 (  0.9969) /_   -3.8
97        (162)    2           2.4722 (   1.029) /_ -122.2
97        (163)    3           2.4364 (   1.014) /_  117.7

ELEMENT = "Line.l69"
68        (155)    1           2.3928 (  0.9963) /_   -3.8
------------
69        (164)    1           2.3884 (  0.9944) /_   -3.8

ELEMENT = "Line.l70"
69        (164)    1           2.3884 (  0.9944) /_   -3.8
------------
70        (165)    1           2.3853 (  0.9931) /_   -3.9

ELEMENT = "Line.l71"
70        (165)    1           2.3853 (  0.9931) /_   -3.9
------------
71        (166)    1           2.3835 (  0.9924) /_   -3.9

ELEMENT = "Line.l72"
72        (160)    1           2.4375 (   1.015) /_  117.6
------------
73        (167)    1           2.4322 (   1.013) /_  117.5

ELEMENT = "Line.l73"
72        (158)    1           2.3975 (  0.9982) /_   -3.9
72        (159)    2           2.4714 (   1.029) /_ -122.3
72        (160)    3           2.4375 (   1.015) /_  117.6
------------
76        (168)    1           2.3971 (  0.9981) /_   -3.9
76        (169)    2           2.4702 (   1.029) /_ -122.4
76        (170)    3           2.4388 (   1.015) /_  117.5

ELEMENT = "Line.l74"
73        (167)    1           2.4322 (   1.013) /_  117.5
------------
74        (171)    1           2.4277 (   1.011) /_  117.5

ELEMENT = "Line.l75"
74        (171)    1           2.4277 (   1.011) /_  117.5
------------
75        (172)    1           2.4252 (    1.01) /_  117.5

ELEMENT = "Line.l76"
76        (168)    1           2.3971 (  0.9981) /_   -3.9
76        (169)    2           2.4702 (   1.029) /_ -122.4
76        (170)    3           2.4388 (   1.015) /_  117.5
------------
77        (173)    1           2.3997 (  0.9991) /_   -4.0
77        (174)    2            2.473 (    1.03) /_ -122.5
77        (175)    3           2.4409 (   1.016) /_  117.5

ELEMENT = "Line.l77"
76        (168)    1           2.3971 (  0.9981) /_   -3.9
76        (169)    2           2.4702 (   1.029) /_ -122.4
76        (170)    3           2.4388 (   1.015) /_  117.5
------------
86        (176)    1           2.3947 (  0.9971) /_   -4.0
86        (177)    2           2.4661 (   1.027) /_ -122.6
86        (178)    3            2.442 (   1.017) /_  117.5

ELEMENT = "Line.l78"
77        (173)    1           2.3997 (  0.9991) /_   -4.0
77        (174)    2            2.473 (    1.03) /_ -122.5
77        (175)    3           2.4409 (   1.016) /_  117.5
------------
78        (179)    1           2.4004 (  0.9994) /_   -4.0
78        (180)    2            2.474 (    1.03) /_ -122.5
78        (181)    3           2.4413 (   1.016) /_  117.4

ELEMENT = "Line.l79"
78        (179)    1           2.4004 (  0.9994) /_   -4.0
78        (180)    2            2.474 (    1.03) /_ -122.5
78        (181)    3           2.4413 (   1.016) /_  117.4
------------
79        (182)    1           2.3997 (  0.9991) /_   -4.0
79        (183)    2           2.4743 (    1.03) /_ -122.5
79        (184)    3           2.4412 (   1.016) /_  117.5

ELEMENT = "Line.l80"
78        (179)    1           2.4004 (  0.9994) /_   -4.0
78        (180)    2            2.474 (    1.03) /_ -122.5
78        (181)    3           2.4413 (   1.016) /_  117.4
------------
80        (185)    1           2.4051 (   1.001) /_   -4.1
80        (186)    2            2.478 (   1.032) /_ -122.5
80        (187)    3           2.4434 (   1.017) /_  117.3

ELEMENT = "Line.l81"
80        (185)    1           2.4051 (   1.001) /_   -4.1
80        (186)    2            2.478 (   1.032) /_ -122.5
80        (187)    3           2.4434 (   1.017) /_  117.3
------------
81        (188)    1            2.407 (   1.002) /_   -4.1
81        (189)    2             2.48 (   1.033) /_ -122.6
81        (190)    3           2.4438 (   1.018) /_  117.3

ELEMENT = "Line.l82"
81        (188)    1            2.407 (   1.002) /_   -4.1
81        (189)    2             2.48 (   1.033) /_ -122.6
81        (190)    3           2.4438 (   1.018) /_  117.3
------------
82        (191)    1           2.4089 (   1.003) /_   -4.2
82        (192)    2           2.4831 (   1.034) /_ -122.6
82        (193)    3           2.4457 (   1.018) /_  117.3

ELEMENT = "Line.l83"
81        (190)    1           2.4438 (   1.018) /_  117.3
------------
84        (194)    1           2.4374 (   1.015) /_  117.3

ELEMENT = "Line.l84"
82        (191)    1           2.4089 (   1.003) /_   -4.2
82        (192)    2           2.4831 (   1.034) /_ -122.6
82        (193)    3           2.4457 (   1.018) /_  117.3
------------
83        (195)    1           2.4116 (   1.004) /_   -4.2
83        (196)    2           2.4857 (   1.035) /_ -122.6
83        (197)    3           2.4476 (   1.019) /_  117.2

ELEMENT = "Line.l85"
84        (194)    1           2.4374 (   1.015) /_  117.3
------------
85        (198)    1           2.4344 (   1.014) /_  117.2

ELEMENT = "Line.l86"
86        (176)    1           2.3947 (  0.9971) /_   -4.0
86        (177)    2           2.4661 (   1.027) /_ -122.6
86        (178)    3            2.442 (   1.017) /_  117.5
------------
87        (199)    1           2.3933 (  0.9965) /_   -4.0
87        (200)    2           2.4642 (   1.026) /_ -122.6
87        (201)    3           2.4434 (   1.017) /_  117.5

ELEMENT = "Line.l87"
87        (199)    1           2.3933 (  0.9965) /_   -4.0
------------
88        (202)    1           2.3931 (  0.9964) /_   -4.0

ELEMENT = "Line.l88"
87        (199)    1           2.3933 (  0.9965) /_   -4.0
87        (200)    2           2.4642 (   1.026) /_ -122.6
87        (201)    3           2.4434 (   1.017) /_  117.5
------------
89        (203)    1           2.3923 (   0.996) /_   -4.0
89        (204)    2           2.4635 (   1.026) /_ -122.7
89        (205)    3           2.4444 (   1.018) /_  117.5

ELEMENT = "Line.l89"
89        (204)    1           2.4635 (   1.026) /_ -122.7
------------
90        (206)    1           2.4633 (   1.026) /_ -122.7

ELEMENT = "Line.l90"
89        (203)    1           2.3923 (   0.996) /_   -4.0
89        (204)    2           2.4635 (   1.026) /_ -122.7
89        (205)    3           2.4444 (   1.018) /_  117.5
------------
91        (207)    1           2.3917 (  0.9958) /_   -4.0
91        (208)    2           2.4627 (   1.025) /_ -122.7
91        (209)    3           2.4449 (   1.018) /_  117.5

ELEMENT = "Line.l91"
91        (209)    1           2.4449 (   1.018) /_  117.5
------------
92        (210)    1           2.4447 (   1.018) /_  117.4

ELEMENT = "Line.l92"
91        (207)    1           2.3917 (  0.9958) /_   -4.0
91        (208)    2           2.4627 (   1.025) /_ -122.7
91        (209)    3           2.4449 (   1.018) /_  117.5
------------
93        (211)    1            2.391 (  0.9955) /_   -4.0
93        (212)    2           2.4623 (   1.025) /_ -122.7
93        (213)    3           2.4452 (   1.018) /_  117.5

ELEMENT = "Line.l93"
93        (211)    1            2.391 (  0.9955) /_   -4.0
------------
94        (214)    1           2.3892 (  0.9948) /_   -4.0

ELEMENT = "Line.l94"
93        (211)    1            2.391 (  0.9955) /_   -4.0
93        (212)    2           2.4623 (   1.025) /_ -122.7
93        (213)    3           2.4452 (   1.018) /_  117.5
------------
95        (215)    1           2.3909 (  0.9955) /_   -4.0
95        (216)    2           2.4614 (   1.025) /_ -122.7
95        (217)    3           2.4456 (   1.018) /_  117.5

ELEMENT = "Line.l95"
95        (216)    1           2.4614 (   1.025) /_ -122.7
------------
96        (218)    1           2.4608 (   1.025) /_ -122.7

ELEMENT = "Line.l96"
97        (161)    1           2.3943 (  0.9969) /_   -3.8
97        (162)    2           2.4722 (   1.029) /_ -122.2
97        (163)    3           2.4364 (   1.014) /_  117.7
------------
98        (219)    1           2.3938 (  0.9967) /_   -3.8
98        (220)    2           2.4716 (   1.029) /_ -122.2
98        (221)    3           2.4359 (   1.014) /_  117.7

ELEMENT = "Line.l97"
98        (219)    1           2.3938 (  0.9967) /_   -3.8
98        (220)    2           2.4716 (   1.029) /_ -122.2
98        (221)    3           2.4359 (   1.014) /_  117.7
------------
99        (222)    1           2.3945 (   0.997) /_   -3.8
99        (223)    2           2.4697 (   1.028) /_ -122.2
99        (224)    3           2.4351 (   1.014) /_  117.6

ELEMENT = "Line.l98"
99        (222)    1           2.3945 (   0.997) /_   -3.8
99        (223)    2           2.4697 (   1.028) /_ -122.2
99        (224)    3           2.4351 (   1.014) /_  117.6
------------
100       (225)    1            2.395 (  0.9972) /_   -3.8
100       (226)    2           2.4695 (   1.028) /_ -122.2
100       (227)    3           2.4341 (   1.013) /_  117.6

ELEMENT = "Line.l99"
100       (225)    1            2.395 (  0.9972) /_   -3.8
100       (226)    2           2.4695 (   1.028) /_ -122.2
100       (227)    3           2.4341 (   1.013) /_  117.6
------------
450       (228)    1            2.395 (  0.9972) /_   -3.8
450       (229)    2           2.4695 (   1.028) /_ -122.2
450       (230)    3           2.4341 (   1.013) /_  117.6

ELEMENT = "Line.l100"
101       (231)    1            2.435 (   1.014) /_  117.7
------------
102       (232)    1           2.4315 (   1.012) /_  117.7

ELEMENT = "Line.l101"
101       (233)    1           2.3923 (  0.9961) /_   -3.9
101       (234)    2           2.4716 (   1.029) /_ -122.2
101       (231)    3            2.435 (   1.014) /_  117.7
------------
105       (235)    1            2.389 (  0.9947) /_   -3.9
105       (236)    2           2.4713 (   1.029) /_ -122.3
105       (237)    3           2.4357 (   1.014) /_  117.7

ELEMENT = "Line.l102"
102       (232)    1           2.4315 (   1.012) /_  117.7
------------
103       (238)    1           2.4274 (   1.011) /_  117.6

ELEMENT = "Line.l103"
103       (238)    1           2.4274 (   1.011) /_  117.6
------------
104       (239)    1           2.4229 (   1.009) /_  117.6

ELEMENT = "Line.l104"
105       (236)    1           2.4713 (   1.029) /_ -122.3
------------
106       (240)    1           2.4685 (   1.028) /_ -122.3

ELEMENT = "Line.l105"
105       (235)    1            2.389 (  0.9947) /_   -3.9
105       (236)    2           2.4713 (   1.029) /_ -122.3
105       (237)    3           2.4357 (   1.014) /_  117.7
------------
108       (241)    1           2.3854 (  0.9932) /_   -4.0
108       (242)    2           2.4729 (    1.03) /_ -122.3
108       (243)    3           2.4353 (   1.014) /_  117.8

ELEMENT = "Line.l106"
106       (240)    1           2.4685 (   1.028) /_ -122.3
------------
107       (244)    1           2.4649 (   1.026) /_ -122.3

ELEMENT = "Line.l107"
108       (241)    1           2.3854 (  0.9932) /_   -4.0
------------
109       (245)    1           2.3753 (   0.989) /_   -4.1

ELEMENT = "Line.l108"
108       (241)    1           2.3854 (  0.9932) /_   -4.0
108       (242)    2           2.4729 (    1.03) /_ -122.3
108       (243)    3           2.4353 (   1.014) /_  117.8
------------
300       (246)    1           2.3854 (  0.9932) /_   -4.0
300       (247)    2           2.4729 (    1.03) /_ -122.3
300       (248)    3           2.4353 (   1.014) /_  117.8

ELEMENT = "Line.l109"
109       (245)    1           2.3753 (   0.989) /_   -4.1
------------
110       (249)    1           2.3705 (   0.987) /_   -4.1

ELEMENT = "Line.l110"
110       (249)    1           2.3705 (   0.987) /_   -4.1
------------
111       (250)    1           2.3686 (  0.9862) /_   -4.1

ELEMENT = "Line.l111"
110       (249)    1           2.3705 (   0.987) /_   -4.1
------------
112       (251)    1           2.3689 (  0.9863) /_   -4.1

ELEMENT = "Line.l112"
112       (251)    1           2.3689 (  0.9863) /_   -4.1
------------
113       (252)    1           2.3638 (  0.9842) /_   -4.2

ELEMENT = "Line.l113"
113       (252)    1           2.3638 (  0.9842) /_   -4.2
------------
114       (253)    1           2.3628 (  0.9838) /_   -4.2

ELEMENT = "Line.l114"
135       (254)    1           2.3836 (  0.9924) /_   -2.3
135       (255)    2            2.461 (   1.025) /_ -121.2
135       (256)    3           2.4164 (   1.006) /_  118.9
------------
35        ( 74)    1           2.3769 (  0.9896) /_   -2.4
35        ( 75)    2           2.4552 (   1.022) /_ -121.3
35        ( 78)    3           2.4134 (   1.005) /_  118.8

ELEMENT = "Line.l116"
152       (257)    1            2.406 (   1.002) /_   -1.9
152       (258)    2           2.4702 (   1.029) /_ -121.0
152       (259)    3           2.4342 (   1.013) /_  118.9
------------
52        (113)    1           2.3916 (  0.9958) /_   -2.3
52        (114)    2           2.4665 (   1.027) /_ -121.2
52        (115)    3           2.4266 (    1.01) /_  118.7

ELEMENT = "Line.l117"
160r      (260)    1            2.402 (       1) /_   -3.5
160r      (261)    2           2.4755 (   1.031) /_ -122.0
160r      (262)    3           2.4433 (   1.017) /_  117.8
------------
67        (154)    1           2.3967 (  0.9979) /_   -3.8
67        (156)    2           2.4734 (    1.03) /_ -122.2
67        (157)    3           2.4383 (   1.015) /_  117.7

ELEMENT = "Line.l118"
197       (263)    1           2.3943 (  0.9969) /_   -3.8
197       (264)    2           2.4722 (   1.029) /_ -122.2
197       (265)    3           2.4364 (   1.014) /_  117.7
------------
101       (233)    1           2.3923 (  0.9961) /_   -3.9
101       (234)    2           2.4716 (   1.029) /_ -122.2
101       (231)    3            2.435 (   1.014) /_  117.7

ELEMENT = "Line.sw1"
150r      (  4)    1           2.4918 (   1.037) /_    0.0
150r      (  5)    2           2.4918 (   1.037) /_ -120.0
150r      (  6)    3           2.4918 (   1.037) /_  120.0
------------
149       (  7)    1           2.4918 (   1.037) /_    0.0
149       (  8)    2           2.4918 (   1.037) /_ -120.0
149       (  9)    3           2.4918 (   1.037) /_  120.0

ELEMENT = "Line.sw2"
13        ( 26)    1            2.406 (   1.002) /_   -1.9
13        ( 27)    2           2.4702 (   1.029) /_ -121.0
13        ( 28)    3           2.4342 (   1.013) /_  118.9
------------
152       (257)    1            2.406 (   1.002) /_   -1.9
152       (258)    2           2.4702 (   1.029) /_ -121.0
152       (259)    3           2.4342 (   1.013) /_  118.9

ELEMENT = "Line.sw3"
18        ( 32)    1           2.3836 (  0.9924) /_   -2.3
18        ( 33)    2            2.461 (   1.025) /_ -121.2
18        ( 34)    3           2.4164 (   1.006) /_  118.9
------------
135       (254)    1           2.3836 (  0.9924) /_   -2.3
135       (255)    2            2.461 (   1.025) /_ -121.2
135       (256)    3           2.4164 (   1.006) /_  118.9

ELEMENT = "Line.sw4"
60        (132)    1           2.3578 (  0.9817) /_   -3.5
60        (133)    2            2.445 (   1.018) /_ -122.0
60        (134)    3           2.3983 (  0.9985) /_  117.8
------------
160       (266)    1           2.3578 (  0.9817) /_   -3.5
160       (267)    2            2.445 (   1.018) /_ -122.0
160       (268)    3           2.3983 (  0.9985) /_  117.8

ELEMENT = "Line.sw5"
97        (161)    1           2.3943 (  0.9969) /_   -3.8
97        (162)    2           2.4722 (   1.029) /_ -122.2
97        (163)    3           2.4364 (   1.014) /_  117.7
------------
197       (263)    1           2.3943 (  0.9969) /_   -3.8
197       (264)    2           2.4722 (   1.029) /_ -122.2
197       (265)    3           2.4364 (   1.014) /_  117.7

ELEMENT = "Line.sw6"
61        (136)    1           2.3578 (  0.9817) /_   -3.5
61        (137)    2            2.445 (   1.018) /_ -122.0
61        (138)    3           2.3983 (  0.9985) /_  117.8
------------
61s       (269)    1           2.3578 (  0.9817) /_   -3.5
61s       (270)    2            2.445 (   1.018) /_ -122.0
61s       (271)    3           2.3983 (  0.9985) /_  117.8

ELEMENT = "Line.sw7"
151       (110)    1           2.3635 (  0.9841) /_   -2.6
151       (111)    2           2.4442 (   1.018) /_ -121.4
151       (112)    3           2.4024 (       1) /_  118.6
------------
300_open  (272)    1           2.3635 (  0.9841) /_   -2.6
300_open  (273)    2           2.4442 (   1.018) /_ -121.4
300_open  (274)    3           2.4024 (       1) /_  118.6

ELEMENT = "Line.sw8"
54        (119)    1           2.3814 (  0.9915) /_   -2.6
------------
94_open   (275)    1           2.3814 (  0.9915) /_   -2.6

ELEMENT = "Transformer.xfm1"
61s       (269)    1           2.3578 (  0.9817) /_   -3.5
61s       (270)    2            2.445 (   1.018) /_ -122.0
61s       (271)    3           2.3983 (  0.9985) /_  117.8
61s       (  0)    4                0 (       0) /_    0.0
------------
610       (276)    1          0.27427 (  0.9897) /_   -2.7
610       (277)    2          0.27767 (   1.002) /_ -122.0
610       (278)    3          0.27891 (   1.006) /_  117.0
610       (  0)    4                0 (       0) /_    0.0

ELEMENT = "Capacitor.c83"
83        (195)    1           2.4116 (   1.004) /_   -4.2
83        (196)    2           2.4857 (   1.035) /_ -122.6
83        (197)    3           2.4476 (   1.019) /_  117.2
------------
83        (  0)    1                0 (       0) /_    0.0
83        (  0)    2                0 (       0) /_    0.0
83        (  0)    3                0 (       0) /_    0.0

ELEMENT = "Capacitor.c88a"
88        (202)    1           2.3931 (  0.9964) /_   -4.0
------------
88        (  0)    1                0 (       0) /_    0.0

ELEMENT = "Capacitor.c90b"
90        (206)    1           2.4633 (   1.026) /_ -122.7
------------
90        (  0)    1                0 (       0) /_    0.0

ELEMENT = "Capacitor.c92c"
92        (210)    1           2.4447 (   1.018) /_  117.4
------------
92        (  0)    1                0 (       0) /_    0.0

ELEMENT = "Transformer.reg2a"
9         ( 25)    1           2.4215 (   1.008) /_   -1.5
9         (  0)    2                0 (       0) /_    0.0
------------
9r        ( 29)    1           2.4215 (   1.008) /_   -1.5
9r        (  0)    2                0 (       0) /_    0.0

ELEMENT = "Transformer.reg3a"
25        ( 50)    1           2.3795 (  0.9907) /_   -2.5
25        (  0)    2                0 (       0) /_    0.0
------------
25r       ( 53)    1           2.3944 (  0.9969) /_   -2.5
25r       (  0)    2                0 (       0) /_    0.0

ELEMENT = "Transformer.reg4a"
160       (266)    1           2.3578 (  0.9817) /_   -3.5
160       (  0)    2                0 (       0) /_    0.0
------------
160r      (260)    1            2.402 (       1) /_   -3.5
160r      (  0)    2                0 (       0) /_    0.0

ELEMENT = "Transformer.reg3c"
25        ( 52)    1           2.4087 (   1.003) /_  118.8
25        (  0)    2                0 (       0) /_    0.0
------------
25r       ( 54)    1           2.4087 (   1.003) /_  118.8
25r       (  0)    2                0 (       0) /_    0.0

ELEMENT = "Transformer.reg4b"
160       (267)    1            2.445 (   1.018) /_ -122.0
160       (  0)    2                0 (       0) /_    0.0
------------
160r      (261)    1           2.4755 (   1.031) /_ -122.0
160r      (  0)    2                0 (       0) /_    0.0

ELEMENT = "Transformer.reg4c"
160       (268)    1           2.3983 (  0.9985) /_  117.8
160       (  0)    2                0 (       0) /_    0.0
------------
160r      (262)    1           2.4433 (   1.017) /_  117.8
160r      (  0)    2                0 (       0) /_    0.0

= = = = = = = = = = = = = = = = = = =  = = = = = = = = = = =  = =

Power Conversion Elements

Bus      (node ref)  Phase    Magnitude, kV (pu)    Angle

ELEMENT = "Load.s1a"
1         ( 10)    1           2.4619 (   1.025) /_   -0.7
1         (  0)    2                0 (       0) /_    0.0

ELEMENT = "Load.s2b"
2         ( 13)    1           2.4842 (   1.034) /_ -120.3
2         (  0)    2                0 (       0) /_    0.0

ELEMENT = "Load.s4c"
4         ( 18)    1           2.4651 (   1.026) /_  119.6
4         (  0)    2                0 (       0) /_    0.0

ELEMENT = "Load.s5c"
5         ( 19)    1           2.4632 (   1.026) /_  119.6
5         (  0)    2                0 (       0) /_    0.0

ELEMENT = "Load.s6c"
6         ( 20)    1           2.4616 (   1.025) /_  119.6
6         (  0)    2                0 (       0) /_    0.0

ELEMENT = "Load.s7a"
7         ( 15)    1           2.4396 (   1.016) /_   -1.1
7         (  0)    2                0 (       0) /_    0.0

ELEMENT = "Load.s9a"
9         ( 25)    1           2.4215 (   1.008) /_   -1.5
9         (  0)    2                0 (       0) /_    0.0

ELEMENT = "Load.s10a"
10        ( 36)    1           2.4166 (   1.006) /_   -1.5
10        (  0)    2                0 (       0) /_    0.0

ELEMENT = "Load.s11a"
11        ( 35)    1           2.4158 (   1.006) /_   -1.5
11        (  0)    2                0 (       0) /_    0.0

ELEMENT = "Load.s12b"
12        ( 24)    1           2.4756 (   1.031) /_ -120.7
12        (  0)    2                0 (       0) /_    0.0

ELEMENT = "Load.s16c"
16        ( 38)    1           2.4285 (   1.011) /_  118.9
16        (  0)    2                0 (       0) /_    0.0

ELEMENT = "Load.s17c"
17        ( 39)    1           2.4297 (   1.012) /_  118.9
17        (  0)    2                0 (       0) /_    0.0

ELEMENT = "Load.s19a"
19        ( 40)    1           2.3804 (  0.9911) /_   -2.3
19        (  0)    2                0 (       0) /_    0.0

ELEMENT = "Load.s20a"
20        ( 44)    1           2.3783 (  0.9902) /_   -2.4
20        (  0)    2                0 (       0) /_    0.0

ELEMENT = "Load.s22b"
22        ( 45)    1           2.4578 (   1.023) /_ -121.2
22        (  0)    2                0 (       0) /_    0.0

ELEMENT = "Load.s24c"
24        ( 49)    1           2.4073 (   1.002) /_  118.8
24        (  0)    2                0 (       0) /_    0.0

ELEMENT = "Load.s28a"
28        ( 57)    1           2.3786 (  0.9904) /_   -2.5
28        (  0)    2                0 (       0) /_    0.0

ELEMENT = "Load.s29a"
29        ( 64)    1           2.3782 (  0.9902) /_   -2.5
29        (  0)    2                0 (       0) /_    0.0

ELEMENT = "Load.s30c"
30        ( 69)    1           2.4057 (   1.002) /_  118.8
30        (  0)    2                0 (       0) /_    0.0

ELEMENT = "Load.s31c"
31        ( 62)    1            2.406 (   1.002) /_  118.8
31        (  0)    2                0 (       0) /_    0.0

ELEMENT = "Load.s32c"
32        ( 73)    1           2.4051 (   1.001) /_  118.8
32        (  0)    2                0 (       0) /_    0.0

ELEMENT = "Load.s33a"
33        ( 63)    1           2.3897 (   0.995) /_   -2.6
33        (  0)    2                0 (       0) /_    0.0

ELEMENT = "Load.s34c"
34        ( 31)    1           2.4318 (   1.013) /_  118.9
34        (  0)    2                0 (       0) /_    0.0

ELEMENT = "Load.s35a"
35        ( 74)    1           2.3769 (  0.9896) /_   -2.4
35        ( 75)    2           2.4552 (   1.022) /_ -121.3

ELEMENT = "Load.s37a"
37        ( 82)    1           2.3728 (  0.9879) /_   -2.4
37        (  0)    2                0 (       0) /_    0.0

ELEMENT = "Load.s38b"
38        ( 83)    1           2.4525 (   1.021) /_ -121.3
38        (  0)    2                0 (       0) /_    0.0

ELEMENT = "Load.s39b"
39        ( 84)    1           2.4515 (   1.021) /_ -121.4
39        (  0)    2                0 (       0) /_    0.0

ELEMENT = "Load.s41c"
41        ( 85)    1           2.4098 (   1.003) /_  118.8
41        (  0)    2                0 (       0) /_    0.0

ELEMENT = "Load.s42a"
42        ( 86)    1           2.3696 (  0.9866) /_   -2.5
42        (  0)    2                0 (       0) /_    0.0

ELEMENT = "Load.s43b"
43        ( 89)    1           2.4463 (   1.019) /_ -121.4
43        (  0)    2                0 (       0) /_    0.0

ELEMENT = "Load.s45a"
45        ( 93)    1           2.3657 (   0.985) /_   -2.5
45        (  0)    2                0 (       0) /_    0.0

ELEMENT = "Load.s46a"
46        ( 97)    1           2.3647 (  0.9846) /_   -2.5
46        (  0)    2                0 (       0) /_    0.0

ELEMENT = "Load.s47"
47        ( 94)    1           2.3646 (  0.9845) /_   -2.5
47        ( 95)    2           2.4451 (   1.018) /_ -121.4
47        ( 96)    3           2.4042 (   1.001) /_  118.6
47        (  0)    4                0 (       0) /_    0.0

ELEMENT = "Load.s48"
48        ( 98)    1           2.3639 (  0.9842) /_   -2.6
48        ( 99)    2           2.4445 (   1.018) /_ -121.4
48        (100)    3           2.4036 (   1.001) /_  118.6
48        (  0)    4                0 (       0) /_    0.0

ELEMENT = "Load.s49a"
49        (101)    1           2.3639 (  0.9842) /_   -2.6
49        (  0)    2                0 (       0) /_    0.0

ELEMENT = "Load.s49b"
49        (102)    1           2.4439 (   1.018) /_ -121.4
49        (  0)    2                0 (       0) /_    0.0

ELEMENT = "Load.s49c"
49        (103)    1           2.4033 (   1.001) /_  118.6
49        (  0)    2                0 (       0) /_    0.0

ELEMENT = "Load.s50c"
50        (106)    1           2.4024 (       1) /_  118.6
50        (  0)    2                0 (       0) /_    0.0

ELEMENT = "Load.s51a"
51        (107)    1           2.3635 (  0.9841) /_   -2.6
51        (  0)    2                0 (       0) /_    0.0

ELEMENT = "Load.s52a"
52        (113)    1           2.3916 (  0.9958) /_   -2.3
52        (  0)    2                0 (       0) /_    0.0

ELEMENT = "Load.s53a"
53        (116)    1            2.385 (   0.993) /_   -2.4
53        (  0)    2                0 (       0) /_    0.0

ELEMENT = "Load.s55a"
55        (122)    1           2.3809 (  0.9913) /_   -2.6
55        (  0)    2                0 (       0) /_    0.0

ELEMENT = "Load.s56b"
56        (129)    1           2.4621 (   1.025) /_ -121.4
56        (  0)    2                0 (       0) /_    0.0

ELEMENT = "Load.s58b"
58        (131)    1           2.4547 (   1.022) /_ -121.6
58        (  0)    2                0 (       0) /_    0.0

ELEMENT = "Load.s59b"
59        (135)    1           2.4539 (   1.022) /_ -121.6
59        (  0)    2                0 (       0) /_    0.0

ELEMENT = "Load.s60a"
60        (132)    1           2.3578 (  0.9817) /_   -3.5
60        (  0)    2                0 (       0) /_    0.0

ELEMENT = "Load.s62c"
62        (141)    1           2.3933 (  0.9965) /_  117.8
62        (  0)    2                0 (       0) /_    0.0

ELEMENT = "Load.s63a"
63        (142)    1           2.3545 (  0.9803) /_   -3.5
63        (  0)    2                0 (       0) /_    0.0

ELEMENT = "Load.s64b"
64        (146)    1           2.4357 (   1.014) /_ -121.9
64        (  0)    2                0 (       0) /_    0.0

ELEMENT = "Load.s65a"
65        (148)    1           2.3521 (  0.9793) /_   -3.5
65        (149)    2            2.435 (   1.014) /_ -121.9

ELEMENT = "Load.s65b"
65        (149)    1            2.435 (   1.014) /_ -121.9
65        (150)    2           2.3783 (  0.9902) /_  117.8

ELEMENT = "Load.s65c"
65        (150)    1           2.3783 (  0.9902) /_  117.8
65        (148)    2           2.3521 (  0.9793) /_   -3.5

ELEMENT = "Load.s66c"
66        (153)    1           2.3746 (  0.9887) /_  117.8
66        (  0)    2                0 (       0) /_    0.0

ELEMENT = "Load.s68a"
68        (155)    1           2.3928 (  0.9963) /_   -3.8
68        (  0)    2                0 (       0) /_    0.0

ELEMENT = "Load.s69a"
69        (164)    1           2.3884 (  0.9944) /_   -3.8
69        (  0)    2                0 (       0) /_    0.0

ELEMENT = "Load.s70a"
70        (165)    1           2.3853 (  0.9931) /_   -3.9
70        (  0)    2                0 (       0) /_    0.0

ELEMENT = "Load.s71a"
71        (166)    1           2.3835 (  0.9924) /_   -3.9
71        (  0)    2                0 (       0) /_    0.0

ELEMENT = "Load.s73c"
73        (167)    1           2.4322 (   1.013) /_  117.5
73        (  0)    2                0 (       0) /_    0.0

ELEMENT = "Load.s74c"
74        (171)    1           2.4277 (   1.011) /_  117.5
74        (  0)    2                0 (       0) /_    0.0

ELEMENT = "Load.s75c"
75        (172)    1           2.4252 (    1.01) /_  117.5
75        (  0)    2                0 (       0) /_    0.0

ELEMENT = "Load.s76a"
76        (168)    1           2.3971 (  0.9981) /_   -3.9
76        (169)    2           2.4702 (   1.029) /_ -122.4

ELEMENT = "Load.s76b"
76        (169)    1           2.4702 (   1.029) /_ -122.4
76        (170)    2           2.4388 (   1.015) /_  117.5

ELEMENT = "Load.s76c"
76        (170)    1           2.4388 (   1.015) /_  117.5
76        (168)    2           2.3971 (  0.9981) /_   -3.9

ELEMENT = "Load.s77b"
77        (174)    1            2.473 (    1.03) /_ -122.5
77        (  0)    2                0 (       0) /_    0.0

ELEMENT = "Load.s79a"
79        (182)    1           2.3997 (  0.9991) /_   -4.0
79        (  0)    2                0 (       0) /_    0.0

ELEMENT = "Load.s80b"
80        (186)    1            2.478 (   1.032) /_ -122.5
80        (  0)    2                0 (       0) /_    0.0

ELEMENT = "Load.s82a"
82        (191)    1           2.4089 (   1.003) /_   -4.2
82        (  0)    2                0 (       0) /_    0.0

ELEMENT = "Load.s83c"
83        (197)    1           2.4476 (   1.019) /_  117.2
83        (  0)    2                0 (       0) /_    0.0

ELEMENT = "Load.s84c"
84        (194)    1           2.4374 (   1.015) /_  117.3
84        (  0)    2                0 (       0) /_    0.0

ELEMENT = "Load.s85c"
85        (198)    1           2.4344 (   1.014) /_  117.2
85        (  0)    2                0 (       0) /_    0.0

ELEMENT = "Load.s86b"
86        (177)    1           2.4661 (   1.027) /_ -122.6
86        (  0)    2                0 (       0) /_    0.0

ELEMENT = "Load.s87b"
87        (200)    1           2.4642 (   1.026) /_ -122.6
87        (  0)    2                0 (       0) /_    0.0

ELEMENT = "Load.s88a"
88        (202)    1           2.3931 (  0.9964) /_   -4.0
88        (  0)    2                0 (       0) /_    0.0

ELEMENT = "Load.s90b"
90        (206)    1           2.4633 (   1.026) /_ -122.7
90        (  0)    2                0 (       0) /_    0.0

ELEMENT = "Load.s92c"
92        (210)    1           2.4447 (   1.018) /_  117.4
92        (  0)    2                0 (       0) /_    0.0

ELEMENT = "Load.s94a"
94        (214)    1           2.3892 (  0.9948) /_   -4.0
94        (  0)    2                0 (       0) /_    0.0

ELEMENT = "Load.s95b"
95        (216)    1           2.4614 (   1.025) /_ -122.7
95        (  0)    2                0 (       0) /_    0.0

ELEMENT = "Load.s96b"
96        (218)    1           2.4608 (   1.025) /_ -122.7
96        (  0)    2                0 (       0) /_    0.0

ELEMENT = "Load.s98a"
98        (219)    1           2.3938 (  0.9967) /_   -3.8
98        (  0)    2                0 (       0) /_    0.0

ELEMENT = "Load.s99b"
99        (223)    1           2.4697 (   1.028) /_ -122.2
99        (  0)    2                0 (       0) /_    0.0

ELEMENT = "Load.s100c"
100       (227)    1           2.4341 (   1.013) /_  117.6
100       (  0)    2                0 (       0) /_    0.0

ELEMENT = "Load.s102c"
102       (232)    1           2.4315 (   1.012) /_  117.7
102       (  0)    2                0 (       0) /_    0.0

ELEMENT = "Load.s103c"
103       (238)    1           2.4274 (   1.011) /_  117.6
103       (  0)    2                0 (       0) /_    0.0

ELEMENT = "Load.s104c"
104       (239)    1           2.4229 (   1.009) /_  117.6
104       (  0)    2                0 (       0) /_    0.0

ELEMENT = "Load.s106b"
106       (240)    1           2.4685 (   1.028) /_ -122.3
106       (  0)    2                0 (       0) /_    0.0

ELEMENT = "Load.s107b"
107       (244)    1           2.4649 (   1.026) /_ -122.3
107       (  0)    2                0 (       0) /_    0.0

ELEMENT = "Load.s109a"
109       (245)    1           2.3753 (   0.989) /_   -4.1
109       (  0)    2                0 (       0) /_    0.0

ELEMENT = "Load.s111a"
111       (250)    1           2.3686 (  0.9862) /_   -4.1
111       (  0)    2                0 (       0) /_    0.0

ELEMENT = "Load.s112a"
112       (251)    1           2.3689 (  0.9863) /_   -4.1
112       (  0)    2                0 (       0) /_    0.0

ELEMENT = "Load.s113a"
113       (252)    1           2.3638 (  0.9842) /_   -4.2
113       (  0)    2                0 (       0) /_    0.0

ELEMENT = "Load.s114a"
114       (253)    1           2.3628 (  0.9838) /_   -4.2
114       (  0)    2                0 (       0) /_    0.0

